@<TRIPOS>MOLECULE
imidazole
9   9    1
SMALL
USER_CHARGES


@<TRIPOS>ATOM
      1 C1          0.6549   -0.7784   -0.3640 C.ar      1 IMI        -0.2621 
      2 C2          1.9499   -0.7740   -0.8259 C.ar      1 IMI         0.2908 
      3 N1          2.3537   -2.0366   -1.1813 N.2       1 IMI        -0.6651 
      4 C3          1.3133   -2.8020   -0.9371 C.ar      1 IMI         0.3808 
      5 N2          0.2603   -2.0844   -0.4416 N.pl3     1 IMI        -0.3208 
      6 H1          0.0003   -0.0000    0.0005 H         1 IMI         0.1769 
      7 H2          2.6117    0.0744   -0.9217 H         1 IMI         0.0414 
      8 H3          1.2583   -3.8695   -1.0948 H         1 IMI         0.0597 
      9 H4         -0.7540   -2.3720   -0.1279 H         1 IMI         0.2984 
@<TRIPOS>BOND
     1    1    5 ar   
     2    1    2 ar   
     3    1    6 1    
     4    2    3 ar   
     5    2    7 1    
     6    3    4 ar   
     7    4    5 ar   
     8    4    8 1    
     9    5    9 1    
@<TRIPOS>SUBSTRUCTURE
     1 IMI         1 GROUP             0       ****    0 ROOT    
@<TRIPOS>MOLECULE
imidazole
10   10    1
SMALL
USER_CHARGES


@<TRIPOS>ATOM
      1 C1          0.6549   -0.7784   -0.3640 C.ar      1 IMI        -0.2621 
      2 C2          1.9499   -0.7740   -0.8259 C.ar      1 IMI         0.2908 
      3 N1          2.3537   -2.0366   -1.1813 N.pl3     1 IMI        -0.6651 
      4 C3          1.3133   -2.8020   -0.9371 C.ar      1 IMI         0.3808 
      5 N2          0.2603   -2.0844   -0.4416 N.pl3     1 IMI        -0.3208 
      6 H1          0.0003   -0.0000    0.0005 H         1 IMI         0.1769 
      7 H2          2.6117    0.0744   -0.9217 H         1 IMI         0.0414 
      8 H3          1.2583   -3.8695   -1.0948 H         1 IMI         0.0597 
      9 H4         -0.7540   -2.3720   -0.1279 H         1 IMI         0.2984 
     10 H10         3.3691   -2.1998   -1.5717 H         1 IMI         0.0000 
@<TRIPOS>BOND
     1    1    5 ar   
     2    1    2 ar   
     3    1    6 1    
     4    2    3 ar   
     5    2    7 1    
     6    3    4 ar   
     7    3   10 1    
     8    4    5 ar   
     9    4    8 1    
    10    5    9 1    
@<TRIPOS>SUBSTRUCTURE
     1 IMI         1 GROUP             0       ****    0 ROOT    
