@<TRIPOS>MOLECULE
host
  144   168     0     0     0
SMALL
NO_CHARGES

@<TRIPOS>ATOM
      1 O1         18.6610   15.4020   16.2050 O.2       1 HST0        0.0000
      2 C1         19.2780   15.9580   17.0880 C.2       1 HST0        0.0000
      3 N1         20.0640   15.3950   18.0100 N.am      1 HST0        0.0000
      4 C2         20.4660   16.1560   19.1210 C.3       1 HST0        0.0000
      5 C3         20.0130   13.9440   18.2180 C.3       1 HST0        0.0000
      6 N2         21.3520   13.3480   18.0660 N.am      1 HST0        0.0000
      7 C4         22.2960   13.1140   19.2140 C.3       1 HST0        0.0000
      8 C5         21.7070   12.4710   17.0060 C.2       1 HST0        0.0000
      9 O2         20.9970   12.3650   16.0060 O.2       1 HST0        0.0000
     10 N3         22.8100   11.7260   17.3720 N.am      1 HST0        0.0000
     11 C6         23.2530   12.0440   18.7180 C.3       1 HST0        0.0000
     12 C7         23.3150   10.5940   16.6050 C.3       1 HST0        0.0000
     13 N4         24.3770   10.9630   15.6460 N.am      1 HST0        0.0000
     14 C8         25.8070   10.9440   16.0240 C.3       1 HST0        0.0000
     15 C9         24.1620   11.0340   14.2830 C.2       1 HST0        0.0000
     16 O3         23.1050   10.8970   13.6790 O.2       1 HST0        0.0000
     17 N5         25.4100   11.2260   13.7200 N.am      1 HST0        0.0000
     18 C10        26.5140   11.1960   14.7240 C.3       1 HST0        0.0000
     19 C11        25.7900   11.1040   12.2860 C.3       1 HST0        0.0000
     20 N6         25.9240   12.4750   11.6850 N.am      1 HST0        0.0000
     21 C12        27.2250   13.0800   11.6050 C.3       1 HST0        0.0000
     22 C13        25.0330   13.0750   10.8630 C.2       1 HST0        0.0000
     23 O4         23.9130   12.6810   10.6890 O.2       1 HST0        0.0000
     24 N7         25.6560   14.1020   10.2530 N.am      1 HST0        0.0000
     25 C14        27.0590   14.2460   10.6190 C.3       1 HST0        0.0000
     26 C15        25.2430   14.5660    8.9370 C.3       1 HST0        0.0000
     27 N8         24.9880   16.0840    8.9290 N.am      1 HST0        0.0000
     28 C16        26.0740   17.0010    8.8490 C.3       1 HST0        0.0000
     29 C17        23.8210   16.6170    8.4640 C.2       1 HST0        0.0000
     30 O5         22.8080   15.9370    8.4590 O.2       1 HST0        0.0000
     31 N9         24.0300   17.8890    8.1210 N.am      1 HST0        0.0000
     32 C18        25.3930   18.2810    8.2970 C.3       1 HST0        0.0000
     33 C19        23.0990   18.8670    7.4850 C.3       1 HST0        0.0000
     34 N10        22.6940   19.9820    8.3350 N.am      1 HST0        0.0000
     35 C20        23.3630   21.2460    8.2260 C.3       1 HST0        0.0000
     36 C21        21.3930   20.0530    8.9020 C.2       1 HST0        0.0000
     37 O6         20.6000   19.1220    9.0840 O.2       1 HST0        0.0000
     38 N11        21.1620   21.3230    9.2560 N.am      1 HST0        0.0000
     39 C22        22.2950   22.1520    8.8420 C.3       1 HST0        0.0000
     40 C23        19.8760   22.0030    9.4050 C.3       1 HST0        0.0000
     41 N12        19.6130   22.2080   10.8290 N.am      1 HST0        0.0000
     42 C24        20.0450   23.4220   11.4870 C.3       1 HST0        0.0000
     43 C25        18.6390   21.5370   11.5660 C.2       1 HST0        0.0000
     44 O7         18.0030   20.5760   11.2200 O.2       1 HST0        0.0000
     45 N13        18.7030   22.0850   12.8250 N.am      1 HST0        0.0000
     46 C26        19.4370   23.3360   12.9020 C.3       1 HST0        0.0000
     47 C27        17.7650   21.8040   13.8960 C.3       1 HST0        0.0000
     48 N14        18.2920   21.0410   15.0000 N.am      1 HST0        0.0000
     49 C28        18.8560   21.5990   16.1540 C.3       1 HST0        0.0000
     50 C29        18.2220   19.6860   15.0480 C.2       1 HST0        0.0000
     51 O8         17.8120   18.8950   14.2260 O.2       1 HST0        0.0000
     52 N15        18.6180   19.3000   16.3190 N.am      1 HST0        0.0000
     53 C30        18.0970   18.1620   17.0290 C.3       1 HST0        0.0000
     54 C31        19.0600   20.4560   17.0960 C.3       1 HST0        0.0000
     55 N16        19.2050   17.3010   17.4450 N.am      1 HST0        0.0000
     56 C32        19.9610   17.5300   18.6710 C.3       1 HST0        0.0000
     57 N17        21.1800   18.2770   18.4760 N.am      1 HST0        0.0000
     58 C33        21.1490   19.7830   18.4790 C.3       1 HST0        0.0000
     59 C34        22.2590   17.5900   18.9240 C.2       1 HST0        0.0000
     60 O9         23.3630   18.0590   19.1270 O.2       1 HST0        0.0000
     61 N18        21.8920   16.3840   19.3240 N.am      1 HST0        0.0000
     62 C35        22.6810   15.4590   20.1860 C.3       1 HST0        0.0000
     63 N19        23.1830   14.2620   19.4670 N.am      1 HST0        0.0000
     64 C36        24.4830   14.0520   19.1510 C.2       1 HST0        0.0000
     65 O10        25.4020   14.8390   19.3320 O.2       1 HST0        0.0000
     66 N20        24.5480   12.8220   18.6040 N.am      1 HST0        0.0000
     67 C37        25.7600   12.1570   18.2610 C.3       1 HST0        0.0000
     68 N21        26.0850   12.1000   16.8610 N.am      1 HST0        0.0000
     69 C38        26.7370   13.0720   16.1510 C.2       1 HST0        0.0000
     70 O11        26.8670   14.2150   16.5110 O.2       1 HST0        0.0000
     71 N22        27.0630   12.5060   14.9230 N.am      1 HST0        0.0000
     72 C39        28.1000   12.9960   13.9860 C.3       1 HST0        0.0000
     73 N23        27.5230   13.7290   12.8480 N.am      1 HST0        0.0000
     74 C40        27.5300   15.1060   12.7480 C.2       1 HST0        0.0000
     75 O12        27.9120   15.8760   13.6380 O.2       1 HST0        0.0000
     76 N24        27.3080   15.4560   11.4280 N.am      1 HST0        0.0000
     77 C41        27.6760   16.6690   10.7580 C.3       1 HST0        0.0000
     78 N25        26.5900   17.4250   10.1300 N.am      1 HST0        0.0000
     79 C42        26.4210   18.7950   10.2990 C.2       1 HST0        0.0000
     80 O13        26.8750   19.5080   11.1960 O.2       1 HST0        0.0000
     81 N26        25.7340   19.3510    9.2550 N.am      1 HST0        0.0000
     82 C43        25.7260   20.7610    8.7900 C.3       1 HST0        0.0000
     83 N27        24.5220   21.4160    9.0990 N.am      1 HST0        0.0000
     84 C44        24.3080   22.3440   10.0600 C.2       1 HST0        0.0000
     85 O14        25.1270   22.8230   10.7650 O.2       1 HST0        0.0000
     86 N28        22.9640   22.7200    9.9890 N.am      1 HST0        0.0000
     87 C45        22.4240   23.8600   10.6740 C.3       1 HST0        0.0000
     88 N29        21.4790   23.5770   11.7780 N.am      1 HST0        0.0000
     89 C46        21.7850   23.5800   13.1650 C.2       1 HST0        0.0000
     90 O15        22.8430   23.8620   13.6120 O.2       1 HST0        0.0000
     91 N30        20.5550   23.3390   13.8470 N.am      1 HST0        0.0000
     92 C47        20.3880   23.4430   15.3250 C.3       1 HST0        0.0000
     93 N31        20.1850   22.1010   15.9010 N.am      1 HST0        0.0000
     94 C48        21.1250   21.4030   16.6040 C.2       1 HST0        0.0000
     95 N32        20.5190   20.4200   17.3030 N.am      1 HST0        0.0000
     96 O16        22.3480   21.6670   16.6040 O.2       1 HST0        0.0000
     97 H1         20.0360   15.7070   20.0230 H         1 HST0        0.0000
     98 H2         19.2710   13.5430   17.5180 H         1 HST0        0.0000
     99 H3         19.6590   13.7700   19.2410 H         1 HST0        0.0000
    100 H4         21.8390   12.7980   20.1590 H         1 HST0        0.0000
    101 H5         23.3220   11.0870   19.2480 H         1 HST0        0.0000
    102 H6         22.4830   10.1420   16.0530 H         1 HST0        0.0000
    103 H7         23.7240    9.8050   17.2480 H         1 HST0        0.0000
    104 H8         26.0960    9.9710   16.4370 H         1 HST0        0.0000
    105 H9         27.2920   10.4560   14.5030 H         1 HST0        0.0000
    106 H10        25.0950   10.4590   11.7370 H         1 HST0        0.0000
    107 H11        26.7850   10.6440   12.2850 H         1 HST0        0.0000
    108 H12        27.9570   12.3210   11.3070 H         1 HST0        0.0000
    109 H13        27.6150   14.1560    9.6790 H         1 HST0        0.0000
    110 H14        26.1040   14.5000    8.2620 H         1 HST0        0.0000
    111 H15        24.4700   13.9490    8.4630 H         1 HST0        0.0000
    112 H16        26.8320   16.5700    8.1850 H         1 HST0        0.0000
    113 H17        25.8370   18.5100    7.3210 H         1 HST0        0.0000
    114 H18        23.4850   19.3430    6.5760 H         1 HST0        0.0000
    115 H19        22.1890   18.3160    7.2210 H         1 HST0        0.0000
    116 H20        23.5880   21.4690    7.1770 H         1 HST0        0.0000
    117 H21        21.9880   22.9760    8.1880 H         1 HST0        0.0000
    118 H22        19.9750   22.9440    8.8520 H         1 HST0        0.0000
    119 H23        19.0810   21.2930    9.1490 H         1 HST0        0.0000
    120 H24        19.7660   24.3060   10.9030 H         1 HST0        0.0000
    121 H25        18.8200   24.2050   13.1580 H         1 HST0        0.0000
    122 H26        17.2800   22.7250   14.2380 H         1 HST0        0.0000
    123 H27        16.8900   21.2460   13.5420 H         1 HST0        0.0000
    124 H28        18.1450   22.2340   16.6960 H         1 HST0        0.0000
    125 H29        17.4450   17.5720   16.3750 H         1 HST0        0.0000
    126 H30        17.4980   18.5340   17.8680 H         1 HST0        0.0000
    127 H31        18.4960   20.6100   18.0230 H         1 HST0        0.0000
    128 H32        19.3200   18.0370   19.4020 H         1 HST0        0.0000
    129 H33        20.4700   20.1490   19.2580 H         1 HST0        0.0000
    130 H34        22.0960   20.3070   18.6510 H         1 HST0        0.0000
    131 H35        22.0380   15.0850   20.9910 H         1 HST0        0.0000
    132 H36        23.5500   15.9600   20.6290 H         1 HST0        0.0000
    133 H37        25.6880   11.1150   18.5960 H         1 HST0        0.0000
    134 H38        26.5850   12.7070   18.7270 H         1 HST0        0.0000
    135 H39        28.6300   12.1620   13.5130 H         1 HST0        0.0000
    136 H40        28.8260   13.6670   14.4590 H         1 HST0        0.0000
    137 H41        28.2370   17.2660   11.4860 H         1 HST0        0.0000
    138 H42        28.3810   16.4580    9.9450 H         1 HST0        0.0000
    139 H43        26.6590   21.2500    9.0940 H         1 HST0        0.0000
    140 H44        25.7760   20.7550    7.6960 H         1 HST0        0.0000
    141 H45        23.2740   24.4420   11.0490 H         1 HST0        0.0000
    142 H46        21.9050   24.3930    9.8690 H         1 HST0        0.0000
    143 H47        21.2480   23.9570   15.7700 H         1 HST0        0.0000
    144 H48        19.4490   24.0060   15.3860 H         1 HST0        0.0000
@<TRIPOS>BOND
     1    1    2 2
     2    2    3 am
     3    3    4 1
     4    3    5 1
     5    5    6 1
     6    6    7 1
     7    6    8 am
     8    8    9 2
     9    8   10 am
    10   10   11 1
    11    7   11 1
    12   10   12 1
    13   12   13 1
    14   13   14 1
    15   13   15 am
    16   15   16 2
    17   15   17 am
    18   17   18 1
    19   14   18 1
    20   17   19 1
    21   19   20 1
    22   20   21 1
    23   20   22 am
    24   22   23 2
    25   22   24 am
    26   24   25 1
    27   21   25 1
    28   24   26 1
    29   26   27 1
    30   27   28 1
    31   27   29 am
    32   29   30 2
    33   29   31 am
    34   28   32 1
    35   31   32 1
    36   31   33 1
    37   33   34 1
    38   34   35 1
    39   34   36 am
    40   36   37 2
    41   36   38 am
    42   38   39 1
    43   35   39 1
    44   38   40 1
    45   40   41 1
    46   41   42 1
    47   41   43 am
    48   43   44 2
    49   43   45 am
    50   45   46 1
    51   42   46 1
    52   45   47 1
    53   47   48 1
    54   48   49 1
    55   48   50 am
    56   50   51 2
    57   50   52 am
    58   52   53 1
    59   52   54 1
    60   49   54 1
    61    2   55 am
    62   53   55 1
    63   55   56 1
    64    4   56 1
    65   56   57 1
    66   57   58 1
    67   57   59 am
    68   59   60 2
    69    4   61 1
    70   59   61 am
    71   61   62 1
    72    7   63 1
    73   62   63 1
    74   63   64 am
    75   64   65 2
    76   11   66 1
    77   64   66 am
    78   66   67 1
    79   14   68 1
    80   67   68 1
    81   68   69 am
    82   69   70 2
    83   18   71 1
    84   69   71 am
    85   71   72 1
    86   21   73 1
    87   72   73 1
    88   73   74 am
    89   74   75 2
    90   74   76 am
    91   25   76 1
    92   76   77 1
    93   28   78 1
    94   77   78 1
    95   78   79 am
    96   79   80 2
    97   32   81 1
    98   79   81 am
    99   81   82 1
   100   82   83 1
   101   35   83 1
   102   83   84 am
   103   84   85 2
   104   39   86 1
   105   84   86 am
   106   86   87 1
   107   42   88 1
   108   87   88 1
   109   88   89 am
   110   89   90 2
   111   89   91 am
   112   46   91 1
   113   91   92 1
   114   49   93 1
   115   92   93 1
   116   93   94 am
   117   94   95 am
   118   54   95 1
   119   58   95 1
   120   94   96 2
   121    4   97 1
   122    5   98 1
   123    5   99 1
   124    7  100 1
   125   11  101 1
   126   12  102 1
   127   12  103 1
   128   14  104 1
   129   18  105 1
   130   19  106 1
   131   19  107 1
   132   21  108 1
   133   25  109 1
   134   26  110 1
   135   26  111 1
   136   28  112 1
   137   32  113 1
   138   33  114 1
   139   33  115 1
   140   35  116 1
   141   39  117 1
   142   40  118 1
   143   40  119 1
   144   42  120 1
   145   46  121 1
   146   47  122 1
   147   47  123 1
   148   49  124 1
   149   53  125 1
   150   53  126 1
   151   54  127 1
   152   56  128 1
   153   58  129 1
   154   58  130 1
   155   62  131 1
   156   62  132 1
   157   67  133 1
   158   67  134 1
   159   72  135 1
   160   72  136 1
   161   77  137 1
   162   77  138 1
   163   82  139 1
   164   82  140 1
   165   87  141 1
   166   87  142 1
   167   92  143 1
   168   92  144 1
